sh: 1: ./simplesim-3.0_ecx/sim-outorder: not found
