sh: 1: sim-outorder: not found
sh: 1: sim-outorder: not found
sh: 1: sim-outorder: not found
sh: 1: sim-outorder: not found
sh: 1: sim-outorder: not found
sh: 1: sim-outorder: not found
sh: 1: sim-outorder: not found
sh: 1: sim-outorder: not found
sh: 1: sim-outorder: not found
sh: 1: sim-outorder: not found
sh: 1: sim-outorder: not found
sh: 1: sim-outorder: not found
sh: 1: sim-outorder: not found
sh: 1: sim-outorder: not found
sh: 1: sim-outorder: not found
sh: 1: sim-outorder: not found
sh: 1: sim-outorder: not found
sh: 1: sim-outorder: not found
sh: 1: sim-outorder: not found
sh: 1: sim-outorder: not found
sh: 1: sim-outorder: not found
sh: 1: sim-outorder: not found
sh: 1: sim-outorder: not found
sh: 1: sim-outorder: not found
sh: 1: ./simplesim-3.0_acx2/sim-outorder: not found
sh: 1: ./simplesim-3.0_acx2/sim-outorder: not found
sh: 1: ./simplesim-3.0_acx2/sim-outorder: not found
sh: 1: ./simplesim-3.0_acx2/sim-outorder: not found
sh: 1: ./simplesim-3.0_acx2/sim-outorder: not found
sh: 1: ./simplesim-3.0_acx2/sim-outorder: not found
sh: 1: ./simplesim-3.0_acx2/sim-outorder: not found
sh: 1: ./simplesim-3.0_acx2/sim-outorder: not found
sh: 1: ./simplesim-3.0_acx2/sim-outorder: not found
sh: 1: ./simplesim-3.0_acx2/sim-outorder: not found
sh: 1: ./simplesim-3.0_acx2/sim-outorder: not found
sh: 1: ./simplesim-3.0_acx2/sim-outorder: not found
sh: 1: ./simplesim-3.0_acx2/sim-outorder: not found
sh: 1: ./simplesim-3.0_acx2/sim-outorder: not found
sh: 1: ./simplesim-3.0_acx2/sim-outorder: not found
sh: 1: ./simplesim-3.0_acx2/sim-outorder: not found
sh: 1: ./simplesim-3.0_acx2/sim-outorder: not found
sh: 1: ./simplesim-3.0_acx2/sim-outorder: not found
sh: 1: ./simplesim-3.0_acx2/sim-outorder: not found
sh: 1: ./simplesim-3.0_acx2/sim-outorder: not found
sh: 1: ./simplesim-3.0_acx2/sim-outorder: not found
sh: 1: ./simplesim-3.0_acx2/sim-outorder: not found
sh: 1: ./simplesim-3.0_acx2/sim-outorder: not found
sh: 1: ./simplesim-3.0_acx2/sim-outorder: not found
sh: 1: ./simplesim-3.0_acx2/sim-outorder: not found
sh: 1: ./simplesim-3.0_acx2/sim-outorder: not found
sh: 1: ./simplesim-3.0_acx2/sim-outorder: not found
sh: 1: ./simplesim-3.0_acx2/sim-outorder: not found
sh: 1: ./simplesim-3.0_acx2/sim-outorder: not found
sh: 1: ./simplesim-3.0_acx2/sim-outorder: not found
sh: 1: ./simplesim-3.0_acx2/sim-outorder: not found
sh: 1: ./simplesim-3.0_acx2/sim-outorder: not found
sh: 1: ./simplesim-3.0_acx2/sim-outorder: not found
sh: 1: ./simplesim-3.0_acx2/sim-outorder: not found
sh: 1: ./simplesim-3.0_acx2/sim-outorder: not found
sh: 1: ./simplesim-3.0_acx2/sim-outorder: not found
sh: 1: ./simplesim-3.0_acx2/sim-outorder: not found
sh: 1: ./simplesim-3.0_acx2/sim-outorder: not found
sh: 1: ./simplesim-3.0_acx2/sim-outorder: not found
sh: 1: ./simplesim-3.0_acx2/sim-outorder: not found
sh: 1: ./simplesim-3.0_acx2/sim-outorder: not found
sh: 1: ./simplesim-3.0_acx2/sim-outorder: not found
sh: 1: ./simplesim-3.0_acx2/sim-outorder: not found
sh: 1: ./simplesim-3.0_acx2/sim-outorder: not found
sh: 1: ./simplesim-3.0_acx2/sim-outorder: not found
sh: 1: ./simplesim-3.0_acx2/sim-outorder: not found
sh: 1: ./simplesim-3.0_acx2/sim-outorder: not found
sh: 1: ./simplesim-3.0_acx2/sim-outorder: not found
sh: 1: ./simplesim-3.0_acx2/sim-outorder: not found
sh: 1: ./simplesim-3.0_acx2/sim-outorder: not found
sh: 1: ./simplesim-3.0_acx2/sim-outorder: not found
sh: 1: ./simplesim-3.0_acx2/sim-outorder: not found
sh: 1: ./simplesim-3.0_acx2/sim-outorder: not found
sh: 1: ./simplesim-3.0_acx2/sim-outorder: not found
sh: 1: ./simplesim-3.0_acx2/sim-outorder: not found
sh: 1: ./simplesim-3.0_acx2/sim-outorder: not found
sh: 1: ./simplesim-3.0_acx2/sim-outorder: not found
sh: 1: ./simplesim-3.0_acx2/sim-outorder: not found
sh: 1: ./simplesim-3.0_acx2/sim-outorder: not found
sh: 1: ./simplesim-3.0_acx2/sim-outorder: not found
sh: 1: ./simplesim-3.0_acx2/sim-outorder: not found
sh: 1: ./simplesim-3.0_acx2/sim-outorder: not found
sh: 1: ./simplesim-3.0_acx2/sim-outorder: not found
sh: 1: ./simplesim-3.0_acx2/sim-outorder: not found
sh: 1: ./simplesim-3.0_acx2/sim-outorder: not found
sh: 1: ./simplesim-3.0_acx2/sim-outorder: not found
sh: 1: ./simplesim-3.0_acx2/sim-outorder: not found
sh: 1: ./simplesim-3.0_acx2/sim-outorder: not found
sh: 1: ./simplesim-3.0_acx2/sim-outorder: not found
sh: 1: ./simplesim-3.0_acx2/sim-outorder: not found
sh: 1: ./simplesim-3.0_acx2/sim-outorder: not found
sh: 1: ./simplesim-3.0_acx2/sim-outorder: not found
sh: 1: ./simplesim-3.0_acx2/sim-outorder: not found
sh: 1: ./simplesim-3.0_acx2/sim-outorder: not found
sh: 1: ./simplesim-3.0_acx2/sim-outorder: not found
sh: 1: ./simplesim-3.0_acx2/sim-outorder: not found
sh: 1: ./simplesim-3.0_acx2/sim-outorder: not found
sh: 1: ./simplesim-3.0_acx2/sim-outorder: not found
sh: 1: ./simplesim-3.0_acx2/sim-outorder: not found
sh: 1: ./simplesim-3.0_acx2/sim-outorder: not found
sh: 1: ./simplesim-3.0_acx2/sim-outorder: not found
sh: 1: ./simplesim-3.0_acx2/sim-outorder: not found
sh: 1: ./simplesim-3.0_acx2/sim-outorder: not found
sh: 1: ./simplesim-3.0_acx2/sim-outorder: not found
sh: 1: ./simplesim-3.0_acx2/sim-outorder: not found
sh: 1: ./simplesim-3.0_acx2/sim-outorder: not found
sh: 1: ./simplesim-3.0_acx2/sim-outorder: not found
sh: 1: ./simplesim-3.0_acx2/sim-outorder: not found
sh: 1: ./simplesim-3.0_acx2/sim-outorder: not found
sh: 1: ./simplesim-3.0_acx2/sim-outorder: not found
sh: 1: ./simplesim-3.0_acx2/sim-outorder: not found
sh: 1: ./simplesim-3.0_acx2/sim-outorder: not found
sh: 1: ./simplesim-3.0_acx2/sim-outorder: not found
sh: 1: ./simplesim-3.0_acx2/sim-outorder: not found
sh: 1: ./simplesim-3.0_acx2/sim-outorder: not found
sh: 1: ./simplesim-3.0_acx2/sim-outorder: not found
